* Parameters and models
*----------------------------------------------------------------------
.param SUPPLY=1.0
.option scale=90n
.include '/afs/cad/u/s/p/sp3233/models/mosistsmc180.sp'
.temp 70
.option post
*----------------------------------------------------------------------
* Simulation netlist
*----------------------------------------------------------------------
Vdd vdd gnd 'SUPPLY'
Vin a gnd PULSE 0 'SUPPLY' 25ps 0ps 0ps 35ps 80ps
M1 y a gnd gnd NMOS W=4 L=2
M2 y a vdd vdd PMOS W=12 L=2
*----------------------------------------------------------------------
* Stimulus
*----------------------------------------------------------------------
.tran 0.1ps 280ps
.measure tpdr * rising prop delay
+ TRIG v(a) VAL='SUPPLY/2' FALL=1
+ TARG v(y) VAL='SUPPLY/2' RISE=1
.measure tpdf * falling prop delay
+ TRIG v(a) VAL='SUPPLY/2' RISE=1
+ TARG v(y) VAL='SUPPLY/2' FALL=1
.measure tpd param='(tpdr+tpdf)/2' * average prop delay
.measure diff param='tpdr-tpdf' * difference b/w tpdr & tpdf
.measure trise * rise time
+ TRIG v(a) VAL='0.2*SUPPLY' RISE=1
+ TARG v(y) VAL='0.8*SUPPLY' RISE=1
.measure tfall * fall time
+ TRIG v(a) VAL='0.8*SUPPLY' FALL=1
+ TARG v(y) VAL='0.2*SUPPLY' FALL=1
.end
